Questionable use of curly braces in ".model sir870adp vdmos(rg=3 vto=2.9 rd=3.2m rs=1.5m rb={m} kp=100 mtriode=1.85 cgdmax=1.4n cgdmin=70p cgs=2.9n cjo=3.6n m=.4 a=.7 vj=.7 lambda=20m is=3p ksubthres=.08 mfg=siliconix vds=100 ron=5.5m qg=53.5n)"
    Error: undefined symbol in: "[m]"
Circuit: * C:\Users\Bagas Prabowo\Documents\LTspice\TU Delft Analog\TUD_Disc_Amplifier\100X\Discrete_Amplifier_100X Test_platform.asc

Ignoring BSIM parameter XL
Ignoring BSIM parameter XW
Ignoring BSIM parameter ACM
Ignoring BSIM parameter LDIF
Ignoring BSIM parameter HDIF
Ignoring BSIM parameter TLEV
Ignoring BSIM parameter TLEVC
Ignoring BSIM parameter CALCACM
Ignoring BSIM parameter SFVTFLAGl
Ignoring BSIM parameter XL
Ignoring BSIM parameter XW
Ignoring BSIM parameter ACM
Ignoring BSIM parameter LDIF
Ignoring BSIM parameter HDIF
Ignoring BSIM parameter TLEV
Ignoring BSIM parameter TLEVC
Ignoring BSIM parameter CALCACM
Ignoring BSIM parameter SFVTFLAGl
Ignoring BSIM parameter XL
Ignoring BSIM parameter XW
Ignoring BSIM parameter ACM
Ignoring BSIM parameter LDIF
Ignoring BSIM parameter HDIF
Ignoring BSIM parameter TLEV
Ignoring BSIM parameter TLEVC
Ignoring BSIM parameter CALCACM
Ignoring BSIM parameter SFVTFLAGl
Ignoring BSIM parameter XL
Ignoring BSIM parameter XW
Ignoring BSIM parameter ACM
Ignoring BSIM parameter LDIF
Ignoring BSIM parameter HDIF
Ignoring BSIM parameter TLEV
Ignoring BSIM parameter TLEVC
Ignoring BSIM parameter CALCACM
Ignoring BSIM parameter SFVTFLAGl
Ignoring BSIM parameter XL
Ignoring BSIM parameter XW
Ignoring BSIM parameter ACM
Ignoring BSIM parameter LDIF
Ignoring BSIM parameter HDIF
Ignoring BSIM parameter TLEV
Ignoring BSIM parameter TLEVC
Ignoring BSIM parameter CALCACM
Ignoring BSIM parameter SFVTFLAGl
Ignoring BSIM parameter XL
Ignoring BSIM parameter XW
Ignoring BSIM parameter ACM
Ignoring BSIM parameter LDIF
Ignoring BSIM parameter HDIF
Ignoring BSIM parameter TLEV
Ignoring BSIM parameter TLEVC
Ignoring BSIM parameter CALCACM
Ignoring BSIM parameter SFVTFLAGl
Ignoring BSIM parameter XL
Ignoring BSIM parameter XW
Ignoring BSIM parameter ACM
Ignoring BSIM parameter LDIF
Ignoring BSIM parameter HDIF
Ignoring BSIM parameter TLEV
Ignoring BSIM parameter TLEVC
Ignoring BSIM parameter CALCACM
Ignoring BSIM parameter SFVTFLAGl
Ignoring BSIM parameter XL
Ignoring BSIM parameter XW
Ignoring BSIM parameter ACM
Ignoring BSIM parameter LDIF
Ignoring BSIM parameter HDIF
Ignoring BSIM parameter TLEV
Ignoring BSIM parameter TLEVC
Ignoring BSIM parameter CALCACM
Ignoring BSIM parameter SFVTFLAGl
Ignoring BSIM parameter XL
Ignoring BSIM parameter XW
Ignoring BSIM parameter ACM
Ignoring BSIM parameter LDIF
Ignoring BSIM parameter HDIF
Ignoring BSIM parameter TLEV
Ignoring BSIM parameter TLEVC
Ignoring BSIM parameter CALCACM
Ignoring BSIM parameter SFVTFLAGl
Ignoring BSIM parameter XL
Ignoring BSIM parameter XW
Ignoring BSIM parameter ACM
Ignoring BSIM parameter LDIF
Ignoring BSIM parameter HDIF
Ignoring BSIM parameter TLEV
Ignoring BSIM parameter TLEVC
Ignoring BSIM parameter CALCACM
Ignoring BSIM parameter SFVTFLAGl
Ignoring BSIM parameter XL
Ignoring BSIM parameter XW
Ignoring BSIM parameter ACM
Ignoring BSIM parameter LDIF
Ignoring BSIM parameter HDIF
Ignoring BSIM parameter TLEV
Ignoring BSIM parameter TLEVC
Ignoring BSIM parameter CALCACM
Ignoring BSIM parameter SFVTFLAGl
Ignoring BSIM parameter XL
Ignoring BSIM parameter XW
Ignoring BSIM parameter ACM
Ignoring BSIM parameter LDIF
Ignoring BSIM parameter HDIF
Ignoring BSIM parameter TLEV
Ignoring BSIM parameter TLEVC
Ignoring BSIM parameter CALCACM
Ignoring BSIM parameter SFVTFLAGl
Ignoring BSIM parameter XL
Ignoring BSIM parameter XW
Ignoring BSIM parameter ACM
Ignoring BSIM parameter LDIF
Ignoring BSIM parameter HDIF
Ignoring BSIM parameter TLEV
Ignoring BSIM parameter TLEVC
Ignoring BSIM parameter CALCACM
Ignoring BSIM parameter SFVTFLAGl
Ignoring BSIM parameter XL
Ignoring BSIM parameter XW
Ignoring BSIM parameter ACM
Ignoring BSIM parameter LDIF
Ignoring BSIM parameter HDIF
Ignoring BSIM parameter TLEV
Ignoring BSIM parameter TLEVC
Ignoring BSIM parameter CALCACM
Ignoring BSIM parameter SFVTFLAGl
Ignoring BSIM parameter XL
Ignoring BSIM parameter XW
Ignoring BSIM parameter ACM
Ignoring BSIM parameter LDIF
Ignoring BSIM parameter HDIF
Ignoring BSIM parameter TLEV
Ignoring BSIM parameter TLEVC
Ignoring BSIM parameter CALCACM
Ignoring BSIM parameter SFVTFLAGl
Warning: Pd = 0 is less than W.
Warning: Ps = 0 is less than W.
Warning: Pd = 0 is less than W.
Warning: Ps = 0 is less than W.
Warning: Pd = 0 is less than W.
Warning: Ps = 0 is less than W.
Warning: Pd = 0 is less than W.
Warning: Ps = 0 is less than W.
Warning: Pd = 0 is less than W.
Warning: Ps = 0 is less than W.
Warning: Pd = 0 is less than W.
Warning: Ps = 0 is less than W.
Warning: Pd = 0 is less than W.
Warning: Ps = 0 is less than W.
Warning: Pd = 0 is less than W.
Warning: Ps = 0 is less than W.
Warning: Pd = 0 is less than W.
Warning: Ps = 0 is less than W.
Warning: Pd = 0 is less than W.
Warning: Ps = 0 is less than W.
Warning: Pd = 0 is less than W.
Warning: Ps = 0 is less than W.
Warning: Pd = 0 is less than W.
Warning: Ps = 0 is less than W.
Warning: Pd = 0 is less than W.
Warning: Ps = 0 is less than W.
Warning: Pd = 0 is less than W.
Warning: Ps = 0 is less than W.
Warning: Pd = 0 is less than W.
Warning: Ps = 0 is less than W.
Warning: Pd = 0 is less than W.
Warning: Ps = 0 is less than W.
Warning: Pd = 0 is less than W.
Warning: Ps = 0 is less than W.
Warning: Pd = 0 is less than W.
Warning: Ps = 0 is less than W.
Warning: Pd = 0 is less than W.
Warning: Ps = 0 is less than W.
Warning: Pd = 0 is less than W.
Warning: Ps = 0 is less than W.
Warning: Pd = 0 is less than W.
Warning: Ps = 0 is less than W.
Warning: Pd = 0 is less than W.
Warning: Ps = 0 is less than W.
Warning: Pd = 0 is less than W.
Warning: Ps = 0 is less than W.
Direct Newton iteration failed to find .op point.  (Use ".option noopiter" to skip.)
Starting Gmin stepping
Gmin = 10
Gmin = 1.07374
Gmin = 0.115292
Gmin = 0.0123794
Gmin = 0.00132923
Gmin = 0.000142725
Gmin = 1.5325e-005
Gmin = 1.6455e-006
Gmin = 1.76685e-007
Gmin = 1.89714e-008
Gmin = 2.03704e-009
vernier = 0.5
vernier = 0.25
vernier = 0.125
vernier = 0.0625
vernier = 0.03125
vernier = 0.015625
vernier = 0.0078125
vernier = 0.00390625
vernier = 0.00195313
Gmin = 2.03704e-009
vernier = 0.000976563
vernier = 0.000488281
Gmin = 0
Gmin stepping failed

Starting source stepping with srcstepmethod=0
Source Step = 1%
Source Step = 11%
Source Step = 21%
Source Step = 31%
Source Step = 41%
Source Step = 51%
Source Step = 61%
Source Step = 71%
Source Step = 72.0195%
Source Step = 72.0586%
Source Step = 72.0977%
Source Step = 72.1367%
Source Step = 72.1758%
vernier = 0.00585938
Source Step = 72.2168%
Source Step = 72.2754%
Source Step = 72.334%
Source Step = 72.3926%
Source Step = 72.4512%
Source Step = 72.5098%
vernier = 0.00878906
Source Step = 72.5977%
Source Step = 72.6855%
Source Step = 72.7734%
Source Step = 72.8613%
Source Step = 72.9492%
vernier = 0.0131836
Source Step = 73.0767%
Source Step = 73.2085%
Source Step = 73.3403%
Source Step = 73.4722%
Source Step = 73.604%
vernier = 0.0197754
Source Step = 73.7886%
Source Step = 73.9863%
Source Step = 74.1841%
Source Step = 74.3818%
Source Step = 74.5796%
vernier = 0.0296631
Source Step = 74.8466%
Source Step = 75.1432%
Source Step = 75.4398%
Source Step = 75.7365%
Source Step = 76.0331%
vernier = 0.0444946
Source Step = 76.4187%
Source Step = 76.8636%
Source Step = 77.3086%
Source Step = 77.7535%
Source Step = 78.1985%
vernier = 0.0667419
Source Step = 78.7547%
Source Step = 79.4221%
Source Step = 80.0895%
Source Step = 80.7569%
Source Step = 81.4243%
vernier = 0.100113
Source Step = 82.2253%
Source Step = 83.2264%
Source Step = 84.2275%
Source Step = 85.2286%
Source Step = 86.2298%
vernier = 0.150169
Source Step = 87.3811%
Source Step = 88.8828%
Source Step = 90.3845%
vernier = 0.0375423
Source Step = 90.3188%
Source Step = 90.4126%
Source Step = 90.5065%
Source Step = 90.6003%
Source Step = 90.6942%
Source Step = 90.788%
Source Step = 90.8819%
Source Step = 90.9757%
Source Step = 91.0696%
Source Step = 91.1635%
Source Step = 91.2573%
Source Step = 91.3512%
Source Step = 91.445%
Source Step = 91.5389%
Source Step = 91.6327%
Source Step = 91.7266%
Source Step = 91.8204%
Source Step = 91.9143%
Source Step = 92.0082%
Source Step = 92.102%
Source Step = 92.1959%
Source Step = 92.2897%
Source Step = 92.3836%
Source Step = 92.4774%
Source Step = 92.5713%
Source Step = 92.6652%
Source Step = 92.759%
Source Step = 92.8529%
Source Step = 92.9467%
Source Step = 93.0406%
vernier = 0.0140784
Source Step = 93.1814%
Source Step = 93.3221%
Source Step = 93.4629%
Source Step = 93.6037%
Source Step = 93.7445%
vernier = 0.0211176
Source Step = 93.9486%
Source Step = 94.1598%
Source Step = 94.371%
Source Step = 94.5822%
Source Step = 94.7933%
vernier = 0.0316764
Source Step = 95.089%
Source Step = 95.4057%
Source Step = 95.7225%
Source Step = 96.0393%
Source Step = 96.356%
vernier = 0.0475145
Source Step = 96.7837%
Source Step = 97.2588%
Source Step = 97.734%
Source Step = 98.2091%
Source Step = 98.6842%
vernier = 0.0712718
Source Step = 99.3019%
Source Step = 100%
Source stepping succeeded in finding the operating point.


Date: Fri Mar 29 22:00:27 2019
Total elapsed time: 4.501 seconds.

tnom = 27
temp = 27
method = trap
totiter = 23540
traniter = 0
tranpoints = 0
accept = 0
rejected = 0
matrix size = 91
fillins = 322
solver = Normal
Matrix Compiler1:    2431 opcodes
Matrix Compiler2: 16.24 KB object code size  1.2/1.6/[0.6]


